<NUMBER OF ZONES> 4
<NUMBER OF NODES> 4
<FIRST THRU NODE> 1
<NUMBER OF LINKS> 4
<END OF METADATA>


~	Init node	Term node	Capacity	Length	Free Flow Time	B	Power	Speed limit	Toll  Type
	1	2	1.0	16.106817	0.2	0.15	4	0.000000	0.000000	0	;
	2	4	1.0	16.057131	0.2	0.15	4	0.000000	0.000000	0	;
	1	3	1.0	16.058740	0.2	0.15	4	0.000000	0.000000	0	;
	3	4	1.0	15.865263	0.2	0.15	4	0.000000	0.000000	0	;
