<NUMBER OF ZONES> 4
<NUMBER OF NODES> 4
<FIRST THRU NODE> 1
<NUMBER OF LINKS> 4
<END OF METADATA>


~	Init node	Term node	Capacity	Length	Free Flow Time	B	Power	Speed limit	Toll  Type
	1	2	4938.061313	16.106817	0.238965	0.15	4	0.000000	0.000000	0	;
	2	3	5254.128510	16.057131	0.240297	0.15	4	0.000000	0.000000	0	;
	3	4	7309.824721	16.058740	0.222813	0.15	4	0.000000	0.000000	0	;
	1	4	7388.626964	15.865263	0.218902	0.15	4	0.000000	0.000000	0	;
