<NUMBER OF ZONES> 1
<TOTAL OD FLOW> 1.0
<END OF METADATA>


Origin  1  
4 :      1.0; 




