<NUMBER OF ZONES> 1
<TOTAL OD FLOW> 5.0
<END OF METADATA>


Origin  1  
2 :      3100.000; 4 :      68.000; 


Origin  2  
3 :      1200.000; 4 :      1300.000;




